
**** 09/25/18 19:24:19 ****** PSpice 17.2.0 (March 2016) ****** ID# 0 ********

 ** Profile: "SCHEMATIC1-half_wave_no_cap"  [ E:\Electronics 1 Lab\lab1\prelab\lab1_prelab_cnl-pspicefiles\schematic1\half_wave_no_ca


 ****     CIRCUIT DESCRIPTION


******************************************************************************




** Creating circuit file "half_wave_no_cap.cir" 
** WARNING: THIS AUTOMATICALLY GENERATED FILE MAY BE OVERWRITTEN BY SUBSEQUENT SIMULATIONS

*Libraries: 
* Profile Libraries :
* Local Libraries :
* From [PSPICE NETLIST] section of C:\Users\cnl9674\cdssetup\OrCAD_PSpice\17.2.0\PSpice.ini file:
.lib "nom.lib" 

*Analysis directives: 
.TRAN  0 18ms 0 
.OPTIONS ADVCONV
.PROBE64 V(alias(*)) I(alias(*)) W(alias(*)) D(alias(*)) NOISE(alias(*)) 
.INC "..\SCHEMATIC1.net" 



**** INCLUDING SCHEMATIC1.net ****
* source LAB1_PRELAB_CNL
D_D1         N00122 0 D1N4004 
R_R1         N00122 N00092  330 TC=0,0 
V_V1         N00092 0 {VDC}
V_V2         VS 0  AC 0
+SIN 0 10 60 0 0 0
R_R2         0 VO  1k TC=0,0 
D_D2         VS VO D1N4004 
C_C1         0 VO  10uF  TC=0,0 
.PARAM  vdc=0

**** RESUMING half_wave_no_cap.cir ****
.END

**** 09/25/18 19:24:19 ****** PSpice 17.2.0 (March 2016) ****** ID# 0 ********

 ** Profile: "SCHEMATIC1-half_wave_no_cap"  [ E:\Electronics 1 Lab\lab1\prelab\lab1_prelab_cnl-pspicefiles\schematic1\half_wave_no_ca


 ****     Diode MODEL PARAMETERS


******************************************************************************




               D1N4004         D1N4001         
          IS   14.110000E-09   14.110000E-09 
           N    1.984           1.984        
         IKF   94.81           94.81         
          BV  600              75            
         IBV   10.000000E-06   10.000000E-06 
          RS     .03389          .03389      
          TT    5.700000E-06    5.700000E-06 
         CJO   25.890000E-12   25.890000E-12 
          VJ     .3245           .3245       
           M     .44             .44         


**** 09/25/18 19:24:19 ****** PSpice 17.2.0 (March 2016) ****** ID# 0 ********

 ** Profile: "SCHEMATIC1-half_wave_no_cap"  [ E:\Electronics 1 Lab\lab1\prelab\lab1_prelab_cnl-pspicefiles\schematic1\half_wave_no_ca


 ****     INITIAL TRANSIENT SOLUTION       TEMPERATURE =   27.000 DEG C


******************************************************************************



 NODE   VOLTAGE     NODE   VOLTAGE     NODE   VOLTAGE     NODE   VOLTAGE


(   VO)-24.23E-21  (   VS)    0.0000  (N00092)    0.0000 (N00122)-401.4E-24 




    VOLTAGE SOURCE CURRENTS
    NAME         CURRENT

    V_V1        -1.216E-24
    V_V2         2.423E-23

    TOTAL POWER DISSIPATION   0.00E+00  WATTS



          JOB CONCLUDED

**** 09/25/18 19:24:19 ****** PSpice 17.2.0 (March 2016) ****** ID# 0 ********

 ** Profile: "SCHEMATIC1-half_wave_no_cap"  [ E:\Electronics 1 Lab\lab1\prelab\lab1_prelab_cnl-pspicefiles\schematic1\half_wave_no_ca


 ****     JOB STATISTICS SUMMARY


******************************************************************************



  Total job time (using Solver 1)   =         .14
