
**** 09/25/18 15:53:07 ****** PSpice 17.2.0 (March 2016) ****** ID# 0 ********

 ** Profile: "SCHEMATIC1-Vd_Id_Sweep"  [ E:\Electronics 1 Lab\lab1\prelab\lab1_prelab_cnl-pspicefiles\schematic1\vd_id_sweep.sim ] 


 ****     CIRCUIT DESCRIPTION


******************************************************************************




** Creating circuit file "Vd_Id_Sweep.cir" 
** WARNING: THIS AUTOMATICALLY GENERATED FILE MAY BE OVERWRITTEN BY SUBSEQUENT SIMULATIONS

*Libraries: 
* Profile Libraries :
* Local Libraries :
* From [PSPICE NETLIST] section of C:\Users\cnl9674\cdssetup\OrCAD_PSpice\17.2.0\PSpice.ini file:
.lib "nom.lib" 

*Analysis directives: 
.DC LIN PARAM VDC -10V 500V 10V 
.OPTIONS ADVCONV
.PROBE64 V(alias(*)) I(alias(*)) W(alias(*)) D(alias(*)) NOISE(alias(*)) 
.INC "..\SCHEMATIC1.net" 



**** INCLUDING SCHEMATIC1.net ****
* source LAB1_PRELAB_CNL
D_D1         N00122 0 D1N4004 
R_R1         N00122 N00092  330 TC=0,0 
V_V1         N00092 0 {VDC}
.PARAM  vdc=0

**** RESUMING Vd_Id_Sweep.cir ****
.END

**** 09/25/18 15:53:07 ****** PSpice 17.2.0 (March 2016) ****** ID# 0 ********

 ** Profile: "SCHEMATIC1-Vd_Id_Sweep"  [ E:\Electronics 1 Lab\lab1\prelab\lab1_prelab_cnl-pspicefiles\schematic1\vd_id_sweep.sim ] 


 ****     Diode MODEL PARAMETERS


******************************************************************************




               D1N4004         D1N4001         
          IS   14.110000E-09   14.110000E-09 
           N    1.984           1.984        
         IKF   94.81           94.81         
          BV  600              75            
         IBV   10.000000E-06   10.000000E-06 
          RS     .03389          .03389      
          TT    5.700000E-06    5.700000E-06 
         CJO   25.890000E-12   25.890000E-12 
          VJ     .3245           .3245       
           M     .44             .44         



          JOB CONCLUDED

**** 09/25/18 15:53:07 ****** PSpice 17.2.0 (March 2016) ****** ID# 0 ********

 ** Profile: "SCHEMATIC1-Vd_Id_Sweep"  [ E:\Electronics 1 Lab\lab1\prelab\lab1_prelab_cnl-pspicefiles\schematic1\vd_id_sweep.sim ] 


 ****     JOB STATISTICS SUMMARY


******************************************************************************



  Total job time (using Solver 1)   =         .09
